lib/MPC2GLM/Case11FromScratch9982.m
% Case saved by PowerWorld Simulator, version 20, build date January 18, 2018
% Case Information Header = 2 lines
% 
% 
function mpc = Case11FromScratch9982
mpc.version = '2';
mpc.baseMVA =  100.00;

%% bus data 
mpc.bus = [
1	3	0.00	0.00	0.00	-79.10	1	1.0240000	23.000000	1.00	1	1.100	0.900
2	1	0.00	0.00	0.00	75.00	1	1.0546104	20.524026	1.00	1	1.100	0.900
3	1	12.78	6.19	0.00	0.10	1	1.0436085	18.825936	1.00	1	1.100	0.900
4	1	0.00	0.00	0.10	-123.20	1	1.0274637	20.112592	1.00	1	1.100	0.900
5	1	16.47	7.99	0.00	7.70	1	1.0319742	18.089455	1.00	1	1.100	0.900
6	1	8.98	6.79	0.00	113.30	1	1.0472498	20.028198	1.00	1	1.100	0.900
7	1	0.00	0.00	42.10	-55.90	1	0.7736503	10.417348	1.00	1	1.100	0.900
8	1	0.00	0.00	-30.90	3.30	1	0.8578593	7.356522	1.00	1	1.100	0.900
9	1	2.59	0.90	-3.40	33.70	1	1.1253976	6.306439	1.00	1	1.100	0.900
10	1	0.00	0.00	12.10	-120.50	1	0.7475387	0.214531	1.00	1	1.100	0.900
11	1	15.77	5.69	-9.10	95.70	1	0.9763225	-3.024462	1.00	1	1.100	0.900
];

%% generator data 
mpc.gen = [
1	66.00	40.02	1000.00	-1000.00	1.0240	100.00	1	1000.00	0.00	0.00	0.00	0.00	0.00	0.00	0.00	0	0	0	0	1000.0000
];

%% generator cost data
mpc.gencost = [
2	0	0	4	0	0	1	0
];

%% branch data
mpc.branch = [
1	2	0.000000	0.070681	0.00000	9900.00	0.00	0.00	0.00000	0.000	1	0.00	0.00	66.00	-42.92	-66.00	47.10
2	3	0.000000	0.154000	0.00000	9900.00	0.00	0.00	0.00000	0.000	1	0.00	0.00	21.18	7.85	-21.18	-7.14
2	4	0.037700	0.041300	0.00000	9900.00	0.00	0.00	0.00000	0.000	1	0.00	0.00	44.83	28.47	-43.87	-27.42
3	5	0.122800	0.180300	0.00000	9900.00	0.00	0.00	0.00000	0.000	1	0.00	0.00	8.40	1.06	-8.32	-0.94
4	5	0.000000	0.459300	0.00000	9900.00	0.00	0.00	0.00000	0.000	1	0.00	0.00	8.15	-0.87	-8.15	1.16
4	6	0.000000	0.017640	0.00000	9900.00	0.00	0.00	0.00000	0.000	1	0.00	0.00	8.98	-115.24	-8.98	117.47
4	7	0.611400	0.811800	0.00000	9900.00	0.00	0.00	0.00000	0.000	1	0.00	0.00	26.63	13.47	-21.47	-6.62
7	8	0.162100	0.216700	0.00000	9900.00	0.00	0.00	0.00000	0.000	1	0.00	0.00	-3.72	-26.84	5.71	29.50
8	9	0.071800	0.718000	0.00000	9900.00	0.00	0.00	0.00000	0.000	1	0.00	0.00	-0.72	-31.87	1.71	41.79
8	10	0.409800	0.560000	0.00000	9900.00	0.00	0.00	0.00000	0.000	1	0.00	0.00	17.75	4.80	-15.87	-2.23
10	11	0.026400	0.264600	0.00000	9900.00	0.00	0.00	0.00000	0.000	1	0.00	0.00	9.09	-65.10	-7.05	85.56
];

%% bus names
mpc.bus_name = {
'BUS NAME    ';
'BUS NAME    ';
'BUS NAME    ';
'BUS NAME    ';
'BUS NAME    ';
'BUS NAME    ';
'BUS NAME    ';
'BUS NAME    ';
'BUS NAME    ';
'BUS NAME    ';
'BUS NAME    ';
};

%% Generator Unit Types
mpc.gentype = {
'UN';
};

%% Generator Fuel Types
mpc.genfuel = {
'unknown';
};
